# Fichier maille personnelle cree a partir du logiciel cristallo 3D
# GRENOBLE INP PHELMA
#####################################################################
loop_
_publ_author_name
'G‚nie'_chemical_formula_sum           'CsCl'
_symmetry_space_group_name_H-M   'Fm-3m'
_cell_angle_alpha                90.000000
_cell_angle_beta                90.000000
_cell_angle_gamma                90.000000
_cell_length_a                   7.020000
_cell_length_b                   7.020000
_cell_length_c                   7.020000
_cell_volume                     345.948395
loop_
_symmetry_equiv_pos_as_xyz
x,y,z
x,1/2+y,1/2+z
z,-x,y
z,1/2-x,1/‚+y
-y,z,-x
-x,-z,-y
loop_
_atom_site_label
_atom_site_fract_x
_atom_site_fract_y
_atom_site_fract_z
_atom_site_U_iso_or_equiv
Cs 0.000000 
0.000000 
0.000000 
0.0000
Cl 0.500000 
0.500000 
0.500000 
0.0000

