# Fichier maille personnelle cree a partir du logiciel cristallo 3D
# GRENOBLE INP PHELMA
#####################################################################
loop_
_publ_author_name
'Maille'_chemical_formula_sum           'Maille'
_symmetry_space_group_name_H-M   'Maille'
_cell_angle_alpha                90.000000
_cell_angle_beta                39.000000
_cell_angle_gamma                56.000000
_cell_length_a                   4.000000
_cell_length_b                   5.000000
_cell_length_c                   3.000000
_cell_volume                     60.000000
loop_
_symmetry_equiv_pos_as_xyz
x,y,z
-x,-y,-z
x,-y,z
x,z+1/2,y+1/2
loop_
_atom_site_label
_atom_site_fract_x
_atom_site_fract_y
_atom_site_fract_z
_atom_site_U_iso_or_equiv
C 0.000000 
0.000000 
0.000000 
0.0000
Cl 0.300000 
0.300000 
0.300000 
0.0000

